Version 4
SHEET 1 996 1008
WIRE -464 -32 -592 -32
WIRE 80 -32 -464 -32
WIRE -592 0 -592 -32
WIRE 80 64 80 -32
WIRE 144 64 80 64
WIRE -464 96 -464 -32
WIRE -96 96 -464 96
WIRE 16 96 -32 96
WIRE 144 96 16 96
WIRE -592 128 -592 80
WIRE 80 144 80 64
WIRE 144 144 80 144
WIRE -464 176 -464 96
WIRE -256 176 -464 176
WIRE -144 176 -192 176
WIRE 144 176 -144 176
WIRE 816 192 432 192
WIRE 80 224 80 144
WIRE 144 224 80 224
WIRE 512 224 432 224
WIRE -464 256 -464 176
WIRE -416 256 -464 256
WIRE -304 256 -352 256
WIRE 144 256 -304 256
WIRE 240 304 240 272
WIRE 288 304 288 272
WIRE 336 304 336 272
WIRE 816 304 816 192
WIRE -304 368 -304 256
WIRE -144 368 -144 176
WIRE 16 368 16 96
WIRE 816 416 816 384
WIRE -240 448 -256 448
WIRE 80 448 64 448
WIRE -240 512 -240 448
WIRE 112 512 -240 512
WIRE 336 512 336 384
WIRE 336 512 192 512
WIRE 720 512 336 512
WIRE -96 544 -96 448
WIRE 112 544 -96 544
WIRE 288 544 288 384
WIRE 288 544 192 544
WIRE 480 544 288 544
WIRE 80 576 80 448
WIRE 112 576 80 576
WIRE 240 576 240 384
WIRE 240 576 192 576
WIRE -304 592 -304 464
WIRE -304 592 -384 592
WIRE -144 592 -144 464
WIRE -144 592 -224 592
WIRE 16 592 16 464
WIRE 16 592 -64 592
WIRE -304 624 -304 592
WIRE -144 624 -144 592
WIRE 16 624 16 592
WIRE 240 624 240 576
WIRE 480 624 480 544
WIRE 720 624 720 512
WIRE -304 640 -304 624
WIRE -144 640 -144 624
WIRE 16 640 16 624
WIRE 320 640 288 640
WIRE 560 640 528 640
WIRE 800 640 768 640
WIRE -384 656 -384 592
WIRE -224 656 -224 592
WIRE -64 656 -64 592
WIRE 240 720 240 704
WIRE 480 720 480 704
WIRE 720 720 720 704
WIRE -384 752 -384 720
WIRE -304 752 -304 720
WIRE -224 752 -224 720
WIRE -144 752 -144 720
WIRE -64 752 -64 720
WIRE 16 752 16 720
WIRE 288 752 288 688
WIRE 528 752 528 688
WIRE 768 752 768 688
FLAG -592 128 0
FLAG -304 752 0
FLAG 816 416 0
FLAG 768 752 0
FLAG 880 640 CM1
FLAG 528 752 0
FLAG 640 640 CM2
FLAG 288 752 0
FLAG 400 640 CM3
FLAG -144 752 0
FLAG 16 752 0
FLAG -304 624 CM1
FLAG -144 624 CM2
FLAG 16 624 CM3
FLAG -384 752 0
FLAG -224 752 0
FLAG -64 752 0
FLAG 720 720 0
FLAG 480 720 0
FLAG 240 720 0
SYMBOL motor_3_H 272 160 R0
SYMATTR InstName X1
SYMATTR SpiceLine L_Leak=.007 R=2.1 Kt=1 IP=0 Inertia=10m VHALL=10
SYMBOL nmos -256 368 M0
WINDOW 3 117 12 VRight 2
SYMATTR Value R6020PNJ
SYMATTR InstName M3
SYMBOL voltage -592 -16 R0
WINDOW 123 0 0 Left 0
WINDOW 39 0 0 Left 0
SYMATTR InstName V1
SYMATTR Value 200
SYMBOL nmos -96 368 M0
WINDOW 3 117 12 VRight 2
SYMATTR Value R6020PNJ
SYMATTR InstName M1
SYMBOL nmos 64 368 M0
WINDOW 3 117 12 VRight 2
SYMATTR Value R6020PNJ
SYMATTR InstName M2
SYMBOL diode -32 80 R90
WINDOW 0 0 32 VBottom 2
WINDOW 3 32 32 VTop 2
SYMATTR InstName D1
SYMBOL diode -192 160 R90
WINDOW 0 0 32 VBottom 2
WINDOW 3 32 32 VTop 2
SYMATTR InstName D2
SYMBOL diode -352 240 R90
WINDOW 0 0 32 VBottom 2
WINDOW 3 32 32 VTop 2
SYMATTR InstName D3
SYMBOL res 800 288 R0
SYMATTR InstName R1
SYMATTR Value 200
SYMBOL res 224 288 R0
WINDOW 0 36 40 Invisible 2
WINDOW 3 36 76 Invisible 2
SYMATTR InstName R2
SYMATTR Value 10
SYMBOL res 272 288 R0
WINDOW 0 36 40 Invisible 2
WINDOW 3 36 76 Invisible 2
SYMATTR InstName R3
SYMATTR Value 10
SYMBOL res 320 288 R0
WINDOW 0 36 40 Invisible 2
WINDOW 3 36 76 Invisible 2
SYMATTR InstName R4
SYMATTR Value 10
SYMBOL res -320 624 R0
SYMATTR InstName R5
SYMATTR Value .1
SYMBOL sw 240 720 R180
WINDOW 3 25 -7 Left 2
SYMATTR InstName S3
SYMATTR Value PWMSW
SYMBOL res -160 624 R0
SYMATTR InstName R6
SYMATTR Value .1
SYMBOL res 0 624 R0
SYMATTR InstName R7
SYMATTR Value .1
SYMBOL sw 480 720 R180
WINDOW 3 25 -7 Left 2
SYMATTR InstName S1
SYMATTR Value PWMSW
SYMBOL sw 720 720 R180
WINDOW 3 25 -7 Left 2
SYMATTR InstName S2
SYMATTR Value PWMSW
SYMBOL cap -400 656 R0
SYMATTR InstName C1
SYMATTR Value 10m
SYMBOL cap -240 656 R0
SYMATTR InstName C2
SYMATTR Value 10m
SYMBOL cap -80 656 R0
SYMATTR InstName C3
SYMATTR Value 10m
SYMBOL res 208 560 R90
WINDOW 0 0 56 Invisible 2
WINDOW 3 32 56 Invisible 2
SYMATTR InstName R8
SYMATTR Value 1
SYMBOL res 208 528 R90
WINDOW 0 0 56 Invisible 2
WINDOW 3 32 56 Invisible 2
SYMATTR InstName R9
SYMATTR Value 1
SYMBOL res 208 496 R90
WINDOW 0 0 56 Invisible 2
WINDOW 3 32 56 Invisible 2
SYMATTR InstName R10
SYMATTR Value 1
SYMBOL res 416 624 R90
WINDOW 0 0 56 VBottom 2
WINDOW 3 32 56 VTop 2
SYMATTR InstName R11
SYMATTR Value 1
SYMBOL res 656 624 R90
WINDOW 0 0 56 VBottom 2
WINDOW 3 32 56 VTop 2
SYMATTR InstName R12
SYMATTR Value 1
SYMBOL res 896 624 R90
WINDOW 0 0 56 VBottom 2
WINDOW 3 32 56 VTop 2
SYMATTR InstName R13
SYMATTR Value 1
TEXT -464 808 Left 2 !.tran 4
TEXT 400 472 Left 2 !.model PWMSW SW(Ron=1 Roff=1k Vt=.5 Vh=.25)
