Version 4
SHEET 1 1112 1684
WIRE -624 -144 -672 -144
WIRE -672 -112 -672 -144
WIRE -672 -16 -672 -32
WIRE -800 48 -896 48
WIRE -768 48 -800 48
WIRE -896 64 -896 48
WIRE -624 64 -672 64
WIRE -800 80 -800 48
WIRE -672 96 -672 64
WIRE -112 160 -272 160
WIRE -896 176 -896 144
WIRE -800 176 -800 144
WIRE -672 192 -672 176
WIRE -112 192 -144 192
WIRE 240 192 176 192
WIRE 240 224 176 224
WIRE -112 240 -272 240
WIRE -624 272 -672 272
WIRE -144 272 -144 192
WIRE -112 272 -144 272
WIRE 288 288 176 288
WIRE 416 288 288 288
WIRE -672 304 -672 272
WIRE 416 304 416 288
WIRE -112 320 -272 320
WIRE 240 320 176 320
WIRE -144 352 -144 272
WIRE -112 352 -144 352
WIRE -144 368 -144 352
WIRE -672 400 -672 384
WIRE 416 432 416 384
FLAG 416 432 0
FLAG -144 368 0
FLAG -272 320 W
FLAG 288 288 shaft
FLAG 240 320 Pos
FLAG -672 -16 0
FLAG -624 -144 U
FLAG -672 192 0
FLAG -624 64 V
FLAG -672 400 0
FLAG -624 272 W
FLAG -272 160 U
FLAG -272 240 V
FLAG -768 48 f
FLAG -896 176 0
FLAG -800 176 0
SYMBOL res 400 288 R0
SYMATTR InstName R1
SYMATTR Value 1
SYMBOL bv -672 -128 R0
SYMATTR InstName B1
SYMATTR Value V=cos(v(f)*2*pi)*100
SYMBOL bv -672 80 R0
SYMATTR InstName B2
SYMATTR Value V=cos(v(f)*2*pi+2*pi/3)*100
SYMBOL bv -672 288 R0
SYMATTR InstName B3
SYMATTR Value V=cos(v(f)*2*pi+4*pi/3)*100
SYMBOL current -896 144 R180
WINDOW 0 24 88 Left 0
WINDOW 3 24 0 Left 0
WINDOW 123 0 0 Left 0
WINDOW 39 0 0 Left 0
SYMATTR InstName I1
SYMATTR Value PWL(0 0 10 0 40 200m)
SYMBOL cap -816 80 R0
SYMATTR InstName C2
SYMATTR Value 1
SYMBOL motor_3_R 16 256 R0
SYMATTR InstName X4
SYMATTR SpiceLine L_Leak=1 R={R} Kt=1 IP=1 Inertia=100m
TEXT -424 528 Left 0 !.tran 100
TEXT 344 192 Left 0 !.ic V(shaft)=0
TEXT -424 512 Left 0 !.param R=100
TEXT -640 456 Left 0 ;Here three phase voltage source (with variable frequency) is used to drive \nthe PMAC motor. This is absolutely a bad idea in real world...
